L24/1726540/GD.dss
! GERACAO DISTRIBUIDA — gerada de UGBT_tab e UGMT_tab
! Unidades com potencia nula sao omitidas (gerariam NaN).
! 61 unidades descartadas por potencia nula.
! 354 unidades de BT realocadas para o secundario do transformador (rede secundaria nao modelada).
! 0 unidades descartadas por ponto de conexao ausente da rede.
! irradiance=1 — ver o docstring: 1,0 e meio-dia de ceu claro, nao a ponta de carga.
! 4 barras tiveram a GD limitada a capacidade do transformador (23 kW cortados).
! inversores em pf=1 — ver o docstring de _pv: 0,92 e capacidade exigida pelo PRODIST, nao despacho.
! 0 unidades de MT ligadas pelo PAC da carga (casadas por CEG_GD): o PAC da UGMT nao existe na SSDMT.
New PVSystem.GD_918f03354789cdd8eb410e2b06b86d57407e50bd26a61ed588fb7ba99d2b3682 phases=3 bus1=node_445409065.1.2.3 conn=wye kv=13.8000 pf=1 pmpp=40.24 kva=40.24 irradiance=1 temperature=25 %cutin=20 %cutout=20 effcurve=MyEff P-TCurve=MyPvsT Daily=IRRAD_DIA TDaily=TEMP_DIA
New PVSystem.GD_f40e6a7617feb14ae8a3eb07c363af404dc6d8f15cd4ca1d85fc383328baa110_1 phases=1 bus1=node_407562268.1.4 conn=wye kv=0.1270 pf=1 pmpp=1.06 kva=1.06 irradiance=1 temperature=25 %cutin=20 %cutout=20 effcurve=MyEff P-TCurve=MyPvsT Daily=IRRAD_DIA TDaily=TEMP_DIA
New PVSystem.GD_f40e6a7617feb14ae8a3eb07c363af404dc6d8f15cd4ca1d85fc383328baa110_2 phases=1 bus1=node_407562268.2.4 conn=wye kv=0.1270 pf=1 pmpp=1.06 kva=1.06 irradiance=1 temperature=25 %cutin=20 %cutout=20 effcurve=MyEff P-TCurve=MyPvsT Daily=IRRAD_DIA TDaily=TEMP_DIA
New PVSystem.GD_f40e6a7617feb14ae8a3eb07c363af404dc6d8f15cd4ca1d85fc383328baa110_3 phases=1 bus1=node_407562268.3.4 conn=wye kv=0.1270 pf=1 pmpp=1.06 kva=1.06 irradiance=1 temperature=25 %cutin=20 %cutout=20 effcurve=MyEff P-TCurve=MyPvsT Daily=IRRAD_DIA TDaily=TEMP_DIA
New PVSystem.GD_6cb1793ffc24d627d768d7292fe62b91d96d07fa8a8bc04ab73ef8eabe2d684d_1 phases=1 bus1=node_407562613.1.4 conn=wye kv=0.1270 pf=1 pmpp=0.75 kva=0.75 irradiance=1 temperature=25 %cutin=20 %cutout=20 effcurve=MyEff P-TCurve=MyPvsT Daily=IRRAD_DIA TDaily=TEMP_DIA
New PVSystem.GD_6cb1793ffc24d627d768d7292fe62b91d96d07fa8a8bc04ab73ef8eabe2d684d_2 phases=1 bus1=node_407562613.2.4 conn=wye kv=0.1270 pf=1 pmpp=0.75 kva=0.75 irradiance=1 temperature=25 %cutin=20 %cutout=20 effcurve=MyEff P-TCurve=MyPvsT Daily=IRRAD_DIA TDaily=TEMP_DIA
New PVSystem.GD_6cb1793ffc24d627d768d7292fe62b91d96d07fa8a8bc04ab73ef8eabe2d684d_3 phases=1 bus1=node_407562613.3.4 conn=wye kv=0.1270 pf=1 pmpp=0.75 kva=0.75 irradiance=1 temperature=25 %cutin=20 %cutout=20 effcurve=MyEff P-TCurve=MyPvsT Daily=IRRAD_DIA TDaily=TEMP_DIA
New PVSystem.GD_69e2ab96a53b6195ac4e8bebcd3d515600d35703ae6693588e9c9ff899bcb054_1 phases=1 bus1=node_407562100.1.4 conn=wye kv=0.1270 pf=1 pmpp=0.67 kva=0.67 irradiance=1 temperature=25 %cutin=20 %cutout=20 effcurve=MyEff P-TCurve=MyPvsT Daily=IRRAD_DIA TDaily=TEMP_DIA
New PVSystem.GD_69e2ab96a53b6195ac4e8bebcd3d515600d35703ae6693588e9c9ff899bcb054_2 phases=1 bus1=node_407562100.2.4 conn=wye kv=0.1270 pf=1 pmpp=0.67 kva=0.67 irradiance=1 temperature=25 %cutin=20 %cutout=20 effcurve=MyEff P-TCurve=MyPvsT Daily=IRRAD_DIA TDaily=TEMP_DIA
New PVSystem.GD_69e2ab96a53b6195ac4e8bebcd3d515600d35703ae6693588e9c9ff899bcb054_3 phases=1 bus1=node_407562100.3.4 conn=wye kv=0.1270 pf=1 pmpp=0.67 kva=0.67 irradiance=1 temperature=25 %cutin=20 %cutout=20 effcurve=MyEff P-TCurve=MyPvsT Daily=IRRAD_DIA TDaily=TEMP_DIA
New PVSystem.GD_62ef24ea85f80155d340b3fd5e4ff9c447e94a3e364a6ad9de9b5dc19eb7aa23_1 phases=1 bus1=node_462896055.1.4 conn=wye kv=0.1270 pf=1 pmpp=0.74 kva=0.74 irradiance=1 temperature=25 %cutin=20 %cutout=20 effcurve=MyEff P-TCurve=MyPvsT Daily=IRRAD_DIA TDaily=TEMP_DIA
New PVSystem.GD_62ef24ea85f80155d340b3fd5e4ff9c447e94a3e364a6ad9de9b5dc19eb7aa23_2 phases=1 bus1=node_462896055.2.4 conn=wye kv=0.1270 pf=1 pmpp=0.74 kva=0.74 irradiance=1 temperature=25 %cutin=20 %cutout=20 effcurve=MyEff P-TCurve=MyPvsT Daily=IRRAD_DIA TDaily=TEMP_DIA
New PVSystem.GD_62ef24ea85f80155d340b3fd5e4ff9c447e94a3e364a6ad9de9b5dc19eb7aa23_3 phases=1 bus1=node_462896055.3.4 conn=wye kv=0.1270 pf=1 pmpp=0.74 kva=0.74 irradiance=1 temperature=25 %cutin=20 %cutout=20 effcurve=MyEff P-TCurve=MyPvsT Daily=IRRAD_DIA TDaily=TEMP_DIA
New PVSystem.GD_2d8f209af383d7271b81330c9298b048e4d279f21ddf67f8168f3485e65731f2_1 phases=1 bus1=node_407562088.1.4 conn=wye kv=0.1270 pf=1 pmpp=0.57 kva=0.57 irradiance=1 temperature=25 %cutin=20 %cutout=20 effcurve=MyEff P-TCurve=MyPvsT Daily=IRRAD_DIA TDaily=TEMP_DIA
New PVSystem.GD_2d8f209af383d7271b81330c9298b048e4d279f21ddf67f8168f3485e65731f2_2 phases=1 bus1=node_407562088.2.4 conn=wye kv=0.1270 pf=1 pmpp=0.57 kva=0.57 irradiance=1 temperature=25 %cutin=20 %cutout=20 effcurve=MyEff P-TCurve=MyPvsT Daily=IRRAD_DIA TDaily=TEMP_DIA
New PVSystem.GD_2d8f209af383d7271b81330c9298b048e4d279f21ddf67f8168f3485e65731f2_3 phases=1 bus1=node_407562088.3.4 conn=wye kv=0.1270 pf=1 pmpp=0.57 kva=0.57 irradiance=1 temperature=25 %cutin=20 %cutout=20 effcurve=MyEff P-TCurve=MyPvsT Daily=IRRAD_DIA TDaily=TEMP_DIA
New PVSystem.GD_2d9bad7d6e2c71b5022a72fb1a10a0485067a65cc92ba52004bf85ef19953dbe_1 phases=1 bus1=node_407562088.1.4 conn=wye kv=0.1270 pf=1 pmpp=2.33 kva=2.33 irradiance=1 temperature=25 %cutin=20 %cutout=20 effcurve=MyEff P-TCurve=MyPvsT Daily=IRRAD_DIA TDaily=TEMP_DIA
New PVSystem.GD_2d9bad7d6e2c71b5022a72fb1a10a0485067a65cc92ba52004bf85ef19953dbe_2 phases=1 bus1=node_407562088.2.4 conn=wye kv=0.1270 pf=1 pmpp=2.33 kva=2.33 irradiance=1 temperature=25 %cutin=20 %cutout=20 effcurve=MyEff P-TCurve=MyPvsT Daily=IRRAD_DIA TDaily=TEMP_DIA
New PVSystem.GD_2d9bad7d6e2c71b5022a72fb1a10a0485067a65cc92ba52004bf85ef19953dbe_3 phases=1 bus1=node_407562088.3.4 conn=wye kv=0.1270 pf=1 pmpp=2.33 kva=2.33 irradiance=1 temperature=25 %cutin=20 %cutout=20 effcurve=MyEff P-TCurve=MyPvsT Daily=IRRAD_DIA TDaily=TEMP_DIA
New PVSystem.GD_aa031e0612df8dc3c24bd6a66dc2e392db2e85d3718eec24439aa0d708b7b7e1_1 phases=1 bus1=node_407562115.1.4 conn=wye kv=0.1270 pf=1 pmpp=2.02 kva=2.02 irradiance=1 temperature=25 %cutin=20 %cutout=20 effcurve=MyEff P-TCurve=MyPvsT Daily=IRRAD_DIA TDaily=TEMP_DIA
New PVSystem.GD_aa031e0612df8dc3c24bd6a66dc2e392db2e85d3718eec24439aa0d708b7b7e1_2 phases=1 bus1=node_407562115.2.4 conn=wye kv=0.1270 pf=1 pmpp=2.02 kva=2.02 irradiance=1 temperature=25 %cutin=20 %cutout=20 effcurve=MyEff P-TCurve=MyPvsT Daily=IRRAD_DIA TDaily=TEMP_DIA
New PVSystem.GD_aa031e0612df8dc3c24bd6a66dc2e392db2e85d3718eec24439aa0d708b7b7e1_3 phases=1 bus1=node_407562115.3.4 conn=wye kv=0.1270 pf=1 pmpp=2.02 kva=2.02 irradiance=1 temperature=25 %cutin=20 %cutout=20 effcurve=MyEff P-TCurve=MyPvsT Daily=IRRAD_DIA TDaily=TEMP_DIA
New PVSystem.GD_2b0f7a16871ae8cee6b0688c5b585a29715c112555d1b61da69801b5669815e9_1 phases=1 bus1=node_407562115.1.4 conn=wye kv=0.1270 pf=1 pmpp=0.98 kva=0.98 irradiance=1 temperature=25 %cutin=20 %cutout=20 effcurve=MyEff P-TCurve=MyPvsT Daily=IRRAD_DIA TDaily=TEMP_DIA
New PVSystem.GD_2b0f7a16871ae8cee6b0688c5b585a29715c112555d1b61da69801b5669815e9_2 phases=1 bus1=node_407562115.2.4 conn=wye kv=0.1270 pf=1 pmpp=0.98 kva=0.98 irradiance=1 temperature=25 %cutin=20 %cutout=20 effcurve=MyEff P-TCurve=MyPvsT Daily=IRRAD_DIA TDaily=TEMP_DIA
New PVSystem.GD_2b0f7a16871ae8cee6b0688c5b585a29715c112555d1b61da69801b5669815e9_3 phases=1 bus1=node_407562115.3.4 conn=wye kv=0.1270 pf=1 pmpp=0.98 kva=0.98 irradiance=1 temperature=25 %cutin=20 %cutout=20 effcurve=MyEff P-TCurve=MyPvsT Daily=IRRAD_DIA TDaily=TEMP_DIA
New PVSystem.GD_37ed3488995db94e7222b65c1a14b6fae673663c5c39c13a11eb763f918f9b2b_1 phases=1 bus1=node_407562115.1.4 conn=wye kv=0.1270 pf=1 pmpp=2.00 kva=2.00 irradiance=1 temperature=25 %cutin=20 %cutout=20 effcurve=MyEff P-TCurve=MyPvsT Daily=IRRAD_DIA TDaily=TEMP_DIA
New PVSystem.GD_37ed3488995db94e7222b65c1a14b6fae673663c5c39c13a11eb763f918f9b2b_2 phases=1 bus1=node_407562115.2.4 conn=wye kv=0.1270 pf=1 pmpp=2.00 kva=2.00 irradiance=1 temperature=25 %cutin=20 %cutout=20 effcurve=MyEff P-TCurve=MyPvsT Daily=IRRAD_DIA TDaily=TEMP_DIA
New PVSystem.GD_37ed3488995db94e7222b65c1a14b6fae673663c5c39c13a11eb763f918f9b2b_3 phases=1 bus1=node_407562115.3.4 conn=wye kv=0.1270 pf=1 pmpp=2.00 kva=2.00 irradiance=1 temperature=25 %cutin=20 %cutout=20 effcurve=MyEff P-TCurve=MyPvsT Daily=IRRAD_DIA TDaily=TEMP_DIA
New PVSystem.GD_4beba6dc14722c3401523a10ab4b1f0733bb2eccb1ca410c7b3b0d30cacb8b9f_1 phases=1 bus1=node_407564395.1.4 conn=wye kv=0.1270 pf=1 pmpp=0.32 kva=0.32 irradiance=1 temperature=25 %cutin=20 %cutout=20 effcurve=MyEff P-TCurve=MyPvsT Daily=IRRAD_DIA TDaily=TEMP_DIA
New PVSystem.GD_4beba6dc14722c3401523a10ab4b1f0733bb2eccb1ca410c7b3b0d30cacb8b9f_2 phases=1 bus1=node_407564395.2.4 conn=wye kv=0.1270 pf=1 pmpp=0.32 kva=0.32 irradiance=1 temperature=25 %cutin=20 %cutout=20 effcurve=MyEff P-TCurve=MyPvsT Daily=IRRAD_DIA TDaily=TEMP_DIA
New PVSystem.GD_4beba6dc14722c3401523a10ab4b1f0733bb2eccb1ca410c7b3b0d30cacb8b9f_3 phases=1 bus1=node_407564395.3.4 conn=wye kv=0.1270 pf=1 pmpp=0.32 kva=0.32 irradiance=1 temperature=25 %cutin=20 %cutout=20 effcurve=MyEff P-TCurve=MyPvsT Daily=IRRAD_DIA TDaily=TEMP_DIA
New PVSystem.GD_96f3886b653c3d88a7fc29276538957161f5427a2abfa9e856a1d7dd5c983b90_1 phases=1 bus1=node_407564395.1.4 conn=wye kv=0.1270 pf=1 pmpp=3.71 kva=3.71 irradiance=1 temperature=25 %cutin=20 %cutout=20 effcurve=MyEff P-TCurve=MyPvsT Daily=IRRAD_DIA TDaily=TEMP_DIA
New PVSystem.GD_96f3886b653c3d88a7fc29276538957161f5427a2abfa9e856a1d7dd5c983b90_2 phases=1 bus1=node_407564395.2.4 conn=wye kv=0.1270 pf=1 pmpp=3.71 kva=3.71 irradiance=1 temperature=25 %cutin=20 %cutout=20 effcurve=MyEff P-TCurve=MyPvsT Daily=IRRAD_DIA TDaily=TEMP_DIA
New PVSystem.GD_96f3886b653c3d88a7fc29276538957161f5427a2abfa9e856a1d7dd5c983b90_3 phases=1 bus1=node_407564395.3.4 conn=wye kv=0.1270 pf=1 pmpp=3.71 kva=3.71 irradiance=1 temperature=25 %cutin=20 %cutout=20 effcurve=MyEff P-TCurve=MyPvsT Daily=IRRAD_DIA TDaily=TEMP_DIA
New PVSystem.GD_6581f0d8320738e1356a113df5cca7f8e3676126d75c37bc47e403a0192da6f2_1 phases=1 bus1=node_407563609.1.4 conn=wye kv=0.1270 pf=1 pmpp=0.15 kva=0.15 irradiance=1 temperature=25 %cutin=20 %cutout=20 effcurve=MyEff P-TCurve=MyPvsT Daily=IRRAD_DIA TDaily=TEMP_DIA
New PVSystem.GD_6581f0d8320738e1356a113df5cca7f8e3676126d75c37bc47e403a0192da6f2_2 phases=1 bus1=node_407563609.2.4 conn=wye kv=0.1270 pf=1 pmpp=0.15 kva=0.15 irradiance=1 temperature=25 %cutin=20 %cutout=20 effcurve=MyEff P-TCurve=MyPvsT Daily=IRRAD_DIA TDaily=TEMP_DIA
New PVSystem.GD_6581f0d8320738e1356a113df5cca7f8e3676126d75c37bc47e403a0192da6f2_3 phases=1 bus1=node_407563609.3.4 conn=wye kv=0.1270 pf=1 pmpp=0.15 kva=0.15 irradiance=1 temperature=25 %cutin=20 %cutout=20 effcurve=MyEff P-TCurve=MyPvsT Daily=IRRAD_DIA TDaily=TEMP_DIA
New PVSystem.GD_5727a76949f6a2639399a3f1319f900535756ecb4ef59d0e2e9322c4629b0d5d_1 phases=1 bus1=node_407563609.1.4 conn=wye kv=0.1270 pf=1 pmpp=0.32 kva=0.32 irradiance=1 temperature=25 %cutin=20 %cutout=20 effcurve=MyEff P-TCurve=MyPvsT Daily=IRRAD_DIA TDaily=TEMP_DIA
New PVSystem.GD_5727a76949f6a2639399a3f1319f900535756ecb4ef59d0e2e9322c4629b0d5d_2 phases=1 bus1=node_407563609.2.4 conn=wye kv=0.1270 pf=1 pmpp=0.32 kva=0.32 irradiance=1 temperature=25 %cutin=20 %cutout=20 effcurve=MyEff P-TCurve=MyPvsT Daily=IRRAD_DIA TDaily=TEMP_DIA
New PVSystem.GD_5727a76949f6a2639399a3f1319f900535756ecb4ef59d0e2e9322c4629b0d5d_3 phases=1 bus1=node_407563609.3.4 conn=wye kv=0.1270 pf=1 pmpp=0.32 kva=0.32 irradiance=1 temperature=25 %cutin=20 %cutout=20 effcurve=MyEff P-TCurve=MyPvsT Daily=IRRAD_DIA TDaily=TEMP_DIA
New PVSystem.GD_6f7c51408b7d5de228bdd4c4910439b20667bcdfb365ddc70ed31e18d9cd43ef_1 phases=1 bus1=node_407563609.1.4 conn=wye kv=0.1270 pf=1 pmpp=0.74 kva=0.74 irradiance=1 temperature=25 %cutin=20 %cutout=20 effcurve=MyEff P-TCurve=MyPvsT Daily=IRRAD_DIA TDaily=TEMP_DIA
New PVSystem.GD_6f7c51408b7d5de228bdd4c4910439b20667bcdfb365ddc70ed31e18d9cd43ef_2 phases=1 bus1=node_407563609.2.4 conn=wye kv=0.1270 pf=1 pmpp=0.74 kva=0.74 irradiance=1 temperature=25 %cutin=20 %cutout=20 effcurve=MyEff P-TCurve=MyPvsT Daily=IRRAD_DIA TDaily=TEMP_DIA
New PVSystem.GD_6f7c51408b7d5de228bdd4c4910439b20667bcdfb365ddc70ed31e18d9cd43ef_3 phases=1 bus1=node_407563609.3.4 conn=wye kv=0.1270 pf=1 pmpp=0.74 kva=0.74 irradiance=1 temperature=25 %cutin=20 %cutout=20 effcurve=MyEff P-TCurve=MyPvsT Daily=IRRAD_DIA TDaily=TEMP_DIA
New PVSystem.GD_05bab863debbed16aafa6a072e3d97d27ca2f3549f11c030ced31a1fbd266b7d_1 phases=1 bus1=node_407563609.1.4 conn=wye kv=0.1270 pf=1 pmpp=1.91 kva=1.91 irradiance=1 temperature=25 %cutin=20 %cutout=20 effcurve=MyEff P-TCurve=MyPvsT Daily=IRRAD_DIA TDaily=TEMP_DIA
New PVSystem.GD_05bab863debbed16aafa6a072e3d97d27ca2f3549f11c030ced31a1fbd266b7d_2 phases=1 bus1=node_407563609.2.4 conn=wye kv=0.1270 pf=1 pmpp=1.91 kva=1.91 irradiance=1 temperature=25 %cutin=20 %cutout=20 effcurve=MyEff P-TCurve=MyPvsT Daily=IRRAD_DIA TDaily=TEMP_DIA
New PVSystem.GD_05bab863debbed16aafa6a072e3d97d27ca2f3549f11c030ced31a1fbd266b7d_3 phases=1 bus1=node_407563609.3.4 conn=wye kv=0.1270 pf=1 pmpp=1.91 kva=1.91 irradiance=1 temperature=25 %cutin=20 %cutout=20 effcurve=MyEff P-TCurve=MyPvsT Daily=IRRAD_DIA TDaily=TEMP_DIA
New PVSystem.GD_628906cbfc2f364c4f64e20db352f7ccc60342f574041527f83eba83495df807_1 phases=1 bus1=node_407563609.1.4 conn=wye kv=0.1270 pf=1 pmpp=1.01 kva=1.01 irradiance=1 temperature=25 %cutin=20 %cutout=20 effcurve=MyEff P-TCurve=MyPvsT Daily=IRRAD_DIA TDaily=TEMP_DIA
New PVSystem.GD_628906cbfc2f364c4f64e20db352f7ccc60342f574041527f83eba83495df807_2 phases=1 bus1=node_407563609.2.4 conn=wye kv=0.1270 pf=1 pmpp=1.01 kva=1.01 irradiance=1 temperature=25 %cutin=20 %cutout=20 effcurve=MyEff P-TCurve=MyPvsT Daily=IRRAD_DIA TDaily=TEMP_DIA
New PVSystem.GD_628906cbfc2f364c4f64e20db352f7ccc60342f574041527f83eba83495df807_3 phases=1 bus1=node_407563609.3.4 conn=wye kv=0.1270 pf=1 pmpp=1.01 kva=1.01 irradiance=1 temperature=25 %cutin=20 %cutout=20 effcurve=MyEff P-TCurve=MyPvsT Daily=IRRAD_DIA TDaily=TEMP_DIA
New PVSystem.GD_9f21de763c7c98d1ab945a54eb9bdaf9d33e005631af3224a2824a7b532c1d8a_1 phases=1 bus1=node_407562595.1.4 conn=wye kv=0.1270 pf=1 pmpp=0.42 kva=0.42 irradiance=1 temperature=25 %cutin=20 %cutout=20 effcurve=MyEff P-TCurve=MyPvsT Daily=IRRAD_DIA TDaily=TEMP_DIA
New PVSystem.GD_9f21de763c7c98d1ab945a54eb9bdaf9d33e005631af3224a2824a7b532c1d8a_2 phases=1 bus1=node_407562595.2.4 conn=wye kv=0.1270 pf=1 pmpp=0.42 kva=0.42 irradiance=1 temperature=25 %cutin=20 %cutout=20 effcurve=MyEff P-TCurve=MyPvsT Daily=IRRAD_DIA TDaily=TEMP_DIA
New PVSystem.GD_9f21de763c7c98d1ab945a54eb9bdaf9d33e005631af3224a2824a7b532c1d8a_3 phases=1 bus1=node_407562595.3.4 conn=wye kv=0.1270 pf=1 pmpp=0.42 kva=0.42 irradiance=1 temperature=25 %cutin=20 %cutout=20 effcurve=MyEff P-TCurve=MyPvsT Daily=IRRAD_DIA TDaily=TEMP_DIA
New PVSystem.GD_f5ac4cc86eb4623e2de021dddce8f9f73cd19d91bd6bccf89ba66199a8e20964_1 phases=1 bus1=node_407562595.1.4 conn=wye kv=0.1270 pf=1 pmpp=0.56 kva=0.56 irradiance=1 temperature=25 %cutin=20 %cutout=20 effcurve=MyEff P-TCurve=MyPvsT Daily=IRRAD_DIA TDaily=TEMP_DIA
New PVSystem.GD_f5ac4cc86eb4623e2de021dddce8f9f73cd19d91bd6bccf89ba66199a8e20964_2 phases=1 bus1=node_407562595.2.4 conn=wye kv=0.1270 pf=1 pmpp=0.56 kva=0.56 irradiance=1 temperature=25 %cutin=20 %cutout=20 effcurve=MyEff P-TCurve=MyPvsT Daily=IRRAD_DIA TDaily=TEMP_DIA
New PVSystem.GD_f5ac4cc86eb4623e2de021dddce8f9f73cd19d91bd6bccf89ba66199a8e20964_3 phases=1 bus1=node_407562595.3.4 conn=wye kv=0.1270 pf=1 pmpp=0.56 kva=0.56 irradiance=1 temperature=25 %cutin=20 %cutout=20 effcurve=MyEff P-TCurve=MyPvsT Daily=IRRAD_DIA TDaily=TEMP_DIA
New PVSystem.GD_6ea5a4cb6c4792856ed84dd0c00067979b05e1945f7df4ee9c24058cdccd1397_1 phases=1 bus1=node_407562595.1.4 conn=wye kv=0.1270 pf=1 pmpp=0.48 kva=0.48 irradiance=1 temperature=25 %cutin=20 %cutout=20 effcurve=MyEff P-TCurve=MyPvsT Daily=IRRAD_DIA TDaily=TEMP_DIA
New PVSystem.GD_6ea5a4cb6c4792856ed84dd0c00067979b05e1945f7df4ee9c24058cdccd1397_2 phases=1 bus1=node_407562595.2.4 conn=wye kv=0.1270 pf=1 pmpp=0.48 kva=0.48 irradiance=1 temperature=25 %cutin=20 %cutout=20 effcurve=MyEff P-TCurve=MyPvsT Daily=IRRAD_DIA TDaily=TEMP_DIA
New PVSystem.GD_6ea5a4cb6c4792856ed84dd0c00067979b05e1945f7df4ee9c24058cdccd1397_3 phases=1 bus1=node_407562595.3.4 conn=wye kv=0.1270 pf=1 pmpp=0.48 kva=0.48 irradiance=1 temperature=25 %cutin=20 %cutout=20 effcurve=MyEff P-TCurve=MyPvsT Daily=IRRAD_DIA TDaily=TEMP_DIA
New PVSystem.GD_b43486374b5a329abb94a39559adcd8d5facddd1b89dd71d3e3f0893a416b8ae_1 phases=1 bus1=node_407562595.1.4 conn=wye kv=0.1270 pf=1 pmpp=1.42 kva=1.42 irradiance=1 temperature=25 %cutin=20 %cutout=20 effcurve=MyEff P-TCurve=MyPvsT Daily=IRRAD_DIA TDaily=TEMP_DIA
New PVSystem.GD_b43486374b5a329abb94a39559adcd8d5facddd1b89dd71d3e3f0893a416b8ae_2 phases=1 bus1=node_407562595.2.4 conn=wye kv=0.1270 pf=1 pmpp=1.42 kva=1.42 irradiance=1 temperature=25 %cutin=20 %cutout=20 effcurve=MyEff P-TCurve=MyPvsT Daily=IRRAD_DIA TDaily=TEMP_DIA
New PVSystem.GD_b43486374b5a329abb94a39559adcd8d5facddd1b89dd71d3e3f0893a416b8ae_3 phases=1 bus1=node_407562595.3.4 conn=wye kv=0.1270 pf=1 pmpp=1.42 kva=1.42 irradiance=1 temperature=25 %cutin=20 %cutout=20 effcurve=MyEff P-TCurve=MyPvsT Daily=IRRAD_DIA TDaily=TEMP_DIA
New PVSystem.GD_c338167e7e325016f66466ee1b6864e7259d77292a92d1f1ba39b50be93bee41_1 phases=1 bus1=node_766556431.1.4 conn=wye kv=0.1270 pf=1 pmpp=0.67 kva=0.67 irradiance=1 temperature=25 %cutin=20 %cutout=20 effcurve=MyEff P-TCurve=MyPvsT Daily=IRRAD_DIA TDaily=TEMP_DIA
New PVSystem.GD_c338167e7e325016f66466ee1b6864e7259d77292a92d1f1ba39b50be93bee41_2 phases=1 bus1=node_766556431.2.4 conn=wye kv=0.1270 pf=1 pmpp=0.67 kva=0.67 irradiance=1 temperature=25 %cutin=20 %cutout=20 effcurve=MyEff P-TCurve=MyPvsT Daily=IRRAD_DIA TDaily=TEMP_DIA
New PVSystem.GD_c338167e7e325016f66466ee1b6864e7259d77292a92d1f1ba39b50be93bee41_3 phases=1 bus1=node_766556431.3.4 conn=wye kv=0.1270 pf=1 pmpp=0.67 kva=0.67 irradiance=1 temperature=25 %cutin=20 %cutout=20 effcurve=MyEff P-TCurve=MyPvsT Daily=IRRAD_DIA TDaily=TEMP_DIA
New PVSystem.GD_e50975525112f9d6c84221bd2aafcbeebb0be5daacb77d5023af40e4fb0d49b8_1 phases=1 bus1=node_766556431.1.4 conn=wye kv=0.1270 pf=1 pmpp=1.56 kva=1.56 irradiance=1 temperature=25 %cutin=20 %cutout=20 effcurve=MyEff P-TCurve=MyPvsT Daily=IRRAD_DIA TDaily=TEMP_DIA
New PVSystem.GD_e50975525112f9d6c84221bd2aafcbeebb0be5daacb77d5023af40e4fb0d49b8_2 phases=1 bus1=node_766556431.2.4 conn=wye kv=0.1270 pf=1 pmpp=1.56 kva=1.56 irradiance=1 temperature=25 %cutin=20 %cutout=20 effcurve=MyEff P-TCurve=MyPvsT Daily=IRRAD_DIA TDaily=TEMP_DIA
New PVSystem.GD_e50975525112f9d6c84221bd2aafcbeebb0be5daacb77d5023af40e4fb0d49b8_3 phases=1 bus1=node_766556431.3.4 conn=wye kv=0.1270 pf=1 pmpp=1.56 kva=1.56 irradiance=1 temperature=25 %cutin=20 %cutout=20 effcurve=MyEff P-TCurve=MyPvsT Daily=IRRAD_DIA TDaily=TEMP_DIA
New PVSystem.GD_86140878214bfbc6e09dc486b5053907ae3b88595d0f2c117fbd3ff920df1681_1 phases=1 bus1=node_407796272.1.4 conn=wye kv=0.1270 pf=1 pmpp=1.95 kva=1.95 irradiance=1 temperature=25 %cutin=20 %cutout=20 effcurve=MyEff P-TCurve=MyPvsT Daily=IRRAD_DIA TDaily=TEMP_DIA
New PVSystem.GD_86140878214bfbc6e09dc486b5053907ae3b88595d0f2c117fbd3ff920df1681_2 phases=1 bus1=node_407796272.2.4 conn=wye kv=0.1270 pf=1 pmpp=1.95 kva=1.95 irradiance=1 temperature=25 %cutin=20 %cutout=20 effcurve=MyEff P-TCurve=MyPvsT Daily=IRRAD_DIA TDaily=TEMP_DIA
New PVSystem.GD_86140878214bfbc6e09dc486b5053907ae3b88595d0f2c117fbd3ff920df1681_3 phases=1 bus1=node_407796272.3.4 conn=wye kv=0.1270 pf=1 pmpp=1.95 kva=1.95 irradiance=1 temperature=25 %cutin=20 %cutout=20 effcurve=MyEff P-TCurve=MyPvsT Daily=IRRAD_DIA TDaily=TEMP_DIA
New PVSystem.GD_936367d2bb696bc538914accc18219af449e798d0f72872ed4bd2dfa21348f64_1 phases=1 bus1=node_407796272.1.4 conn=wye kv=0.1270 pf=1 pmpp=1.46 kva=1.46 irradiance=1 temperature=25 %cutin=20 %cutout=20 effcurve=MyEff P-TCurve=MyPvsT Daily=IRRAD_DIA TDaily=TEMP_DIA
New PVSystem.GD_936367d2bb696bc538914accc18219af449e798d0f72872ed4bd2dfa21348f64_2 phases=1 bus1=node_407796272.2.4 conn=wye kv=0.1270 pf=1 pmpp=1.46 kva=1.46 irradiance=1 temperature=25 %cutin=20 %cutout=20 effcurve=MyEff P-TCurve=MyPvsT Daily=IRRAD_DIA TDaily=TEMP_DIA
New PVSystem.GD_936367d2bb696bc538914accc18219af449e798d0f72872ed4bd2dfa21348f64_3 phases=1 bus1=node_407796272.3.4 conn=wye kv=0.1270 pf=1 pmpp=1.46 kva=1.46 irradiance=1 temperature=25 %cutin=20 %cutout=20 effcurve=MyEff P-TCurve=MyPvsT Daily=IRRAD_DIA TDaily=TEMP_DIA
New PVSystem.GD_f4e47ebd43b7d0d4469a4207492d3a2b5a321efcaafed949884494c0d187535c_1 phases=1 bus1=node_407612508.1.4 conn=wye kv=0.1270 pf=1 pmpp=0.56 kva=0.56 irradiance=1 temperature=25 %cutin=20 %cutout=20 effcurve=MyEff P-TCurve=MyPvsT Daily=IRRAD_DIA TDaily=TEMP_DIA
New PVSystem.GD_f4e47ebd43b7d0d4469a4207492d3a2b5a321efcaafed949884494c0d187535c_2 phases=1 bus1=node_407612508.2.4 conn=wye kv=0.1270 pf=1 pmpp=0.56 kva=0.56 irradiance=1 temperature=25 %cutin=20 %cutout=20 effcurve=MyEff P-TCurve=MyPvsT Daily=IRRAD_DIA TDaily=TEMP_DIA
New PVSystem.GD_f4e47ebd43b7d0d4469a4207492d3a2b5a321efcaafed949884494c0d187535c_3 phases=1 bus1=node_407612508.3.4 conn=wye kv=0.1270 pf=1 pmpp=0.56 kva=0.56 irradiance=1 temperature=25 %cutin=20 %cutout=20 effcurve=MyEff P-TCurve=MyPvsT Daily=IRRAD_DIA TDaily=TEMP_DIA
New PVSystem.GD_349f1d0d96ebde6c11e27bc6ad6732bfe14398f18ff41209af38acd5e4eba5ce_1 phases=1 bus1=node_407612508.1.4 conn=wye kv=0.1270 pf=1 pmpp=0.93 kva=0.93 irradiance=1 temperature=25 %cutin=20 %cutout=20 effcurve=MyEff P-TCurve=MyPvsT Daily=IRRAD_DIA TDaily=TEMP_DIA
New PVSystem.GD_349f1d0d96ebde6c11e27bc6ad6732bfe14398f18ff41209af38acd5e4eba5ce_2 phases=1 bus1=node_407612508.2.4 conn=wye kv=0.1270 pf=1 pmpp=0.93 kva=0.93 irradiance=1 temperature=25 %cutin=20 %cutout=20 effcurve=MyEff P-TCurve=MyPvsT Daily=IRRAD_DIA TDaily=TEMP_DIA
New PVSystem.GD_349f1d0d96ebde6c11e27bc6ad6732bfe14398f18ff41209af38acd5e4eba5ce_3 phases=1 bus1=node_407612508.3.4 conn=wye kv=0.1270 pf=1 pmpp=0.93 kva=0.93 irradiance=1 temperature=25 %cutin=20 %cutout=20 effcurve=MyEff P-TCurve=MyPvsT Daily=IRRAD_DIA TDaily=TEMP_DIA
New PVSystem.GD_19cdead0cbc82128b0d03620339c1ca81c8804580935f1015f28970e07087317_1 phases=1 bus1=node_407562067.1.4 conn=wye kv=0.1270 pf=1 pmpp=0.43 kva=0.43 irradiance=1 temperature=25 %cutin=20 %cutout=20 effcurve=MyEff P-TCurve=MyPvsT Daily=IRRAD_DIA TDaily=TEMP_DIA
New PVSystem.GD_19cdead0cbc82128b0d03620339c1ca81c8804580935f1015f28970e07087317_2 phases=1 bus1=node_407562067.2.4 conn=wye kv=0.1270 pf=1 pmpp=0.43 kva=0.43 irradiance=1 temperature=25 %cutin=20 %cutout=20 effcurve=MyEff P-TCurve=MyPvsT Daily=IRRAD_DIA TDaily=TEMP_DIA
New PVSystem.GD_19cdead0cbc82128b0d03620339c1ca81c8804580935f1015f28970e07087317_3 phases=1 bus1=node_407562067.3.4 conn=wye kv=0.1270 pf=1 pmpp=0.43 kva=0.43 irradiance=1 temperature=25 %cutin=20 %cutout=20 effcurve=MyEff P-TCurve=MyPvsT Daily=IRRAD_DIA TDaily=TEMP_DIA
New PVSystem.GD_fc91798d9640342c9065677e532e2aac5570faa83b5b363c16cbd4dcdf5232bc_1 phases=1 bus1=node_407562061.1.4 conn=wye kv=0.1270 pf=1 pmpp=0.49 kva=0.49 irradiance=1 temperature=25 %cutin=20 %cutout=20 effcurve=MyEff P-TCurve=MyPvsT Daily=IRRAD_DIA TDaily=TEMP_DIA
New PVSystem.GD_fc91798d9640342c9065677e532e2aac5570faa83b5b363c16cbd4dcdf5232bc_2 phases=1 bus1=node_407562061.2.4 conn=wye kv=0.1270 pf=1 pmpp=0.49 kva=0.49 irradiance=1 temperature=25 %cutin=20 %cutout=20 effcurve=MyEff P-TCurve=MyPvsT Daily=IRRAD_DIA TDaily=TEMP_DIA
New PVSystem.GD_fc91798d9640342c9065677e532e2aac5570faa83b5b363c16cbd4dcdf5232bc_3 phases=1 bus1=node_407562061.3.4 conn=wye kv=0.1270 pf=1 pmpp=0.49 kva=0.49 irradiance=1 temperature=25 %cutin=20 %cutout=20 effcurve=MyEff P-TCurve=MyPvsT Daily=IRRAD_DIA TDaily=TEMP_DIA
New PVSystem.GD_3154cbd5d9bd083cfcc5e5cc257893a605a4e5468c18564f9d7bee06dc068141_1 phases=1 bus1=node_407562061.1.4 conn=wye kv=0.1270 pf=1 pmpp=3.15 kva=3.15 irradiance=1 temperature=25 %cutin=20 %cutout=20 effcurve=MyEff P-TCurve=MyPvsT Daily=IRRAD_DIA TDaily=TEMP_DIA
New PVSystem.GD_3154cbd5d9bd083cfcc5e5cc257893a605a4e5468c18564f9d7bee06dc068141_2 phases=1 bus1=node_407562061.2.4 conn=wye kv=0.1270 pf=1 pmpp=3.15 kva=3.15 irradiance=1 temperature=25 %cutin=20 %cutout=20 effcurve=MyEff P-TCurve=MyPvsT Daily=IRRAD_DIA TDaily=TEMP_DIA
New PVSystem.GD_3154cbd5d9bd083cfcc5e5cc257893a605a4e5468c18564f9d7bee06dc068141_3 phases=1 bus1=node_407562061.3.4 conn=wye kv=0.1270 pf=1 pmpp=3.15 kva=3.15 irradiance=1 temperature=25 %cutin=20 %cutout=20 effcurve=MyEff P-TCurve=MyPvsT Daily=IRRAD_DIA TDaily=TEMP_DIA
New PVSystem.GD_5dd94065f0fe1dc4a687ecb5c0334ee36afdfe01837b0708eaa33b94bd1a34d0_1 phases=1 bus1=node_407562061.1.4 conn=wye kv=0.1270 pf=1 pmpp=0.23 kva=0.23 irradiance=1 temperature=25 %cutin=20 %cutout=20 effcurve=MyEff P-TCurve=MyPvsT Daily=IRRAD_DIA TDaily=TEMP_DIA
New PVSystem.GD_5dd94065f0fe1dc4a687ecb5c0334ee36afdfe01837b0708eaa33b94bd1a34d0_2 phases=1 bus1=node_407562061.2.4 conn=wye kv=0.1270 pf=1 pmpp=0.23 kva=0.23 irradiance=1 temperature=25 %cutin=20 %cutout=20 effcurve=MyEff P-TCurve=MyPvsT Daily=IRRAD_DIA TDaily=TEMP_DIA
New PVSystem.GD_5dd94065f0fe1dc4a687ecb5c0334ee36afdfe01837b0708eaa33b94bd1a34d0_3 phases=1 bus1=node_407562061.3.4 conn=wye kv=0.1270 pf=1 pmpp=0.23 kva=0.23 irradiance=1 temperature=25 %cutin=20 %cutout=20 effcurve=MyEff P-TCurve=MyPvsT Daily=IRRAD_DIA TDaily=TEMP_DIA
New PVSystem.GD_04aa8c1052f039d315976bbd06e10bd2d2cc7e699392bd8392226bf996df0c7c_1 phases=1 bus1=node_407562643.1.4 conn=wye kv=0.1270 pf=1 pmpp=1.66 kva=1.66 irradiance=1 temperature=25 %cutin=20 %cutout=20 effcurve=MyEff P-TCurve=MyPvsT Daily=IRRAD_DIA TDaily=TEMP_DIA
New PVSystem.GD_04aa8c1052f039d315976bbd06e10bd2d2cc7e699392bd8392226bf996df0c7c_2 phases=1 bus1=node_407562643.2.4 conn=wye kv=0.1270 pf=1 pmpp=1.66 kva=1.66 irradiance=1 temperature=25 %cutin=20 %cutout=20 effcurve=MyEff P-TCurve=MyPvsT Daily=IRRAD_DIA TDaily=TEMP_DIA
New PVSystem.GD_04aa8c1052f039d315976bbd06e10bd2d2cc7e699392bd8392226bf996df0c7c_3 phases=1 bus1=node_407562643.3.4 conn=wye kv=0.1270 pf=1 pmpp=1.66 kva=1.66 irradiance=1 temperature=25 %cutin=20 %cutout=20 effcurve=MyEff P-TCurve=MyPvsT Daily=IRRAD_DIA TDaily=TEMP_DIA
New PVSystem.GD_788f513892c8273a85aaa96914279bbd1cb5374e789edd228def11a3dc6ba5af_1 phases=1 bus1=node_407562643.1.4 conn=wye kv=0.1270 pf=1 pmpp=0.89 kva=0.89 irradiance=1 temperature=25 %cutin=20 %cutout=20 effcurve=MyEff P-TCurve=MyPvsT Daily=IRRAD_DIA TDaily=TEMP_DIA
New PVSystem.GD_788f513892c8273a85aaa96914279bbd1cb5374e789edd228def11a3dc6ba5af_2 phases=1 bus1=node_407562643.2.4 conn=wye kv=0.1270 pf=1 pmpp=0.89 kva=0.89 irradiance=1 temperature=25 %cutin=20 %cutout=20 effcurve=MyEff P-TCurve=MyPvsT Daily=IRRAD_DIA TDaily=TEMP_DIA
New PVSystem.GD_788f513892c8273a85aaa96914279bbd1cb5374e789edd228def11a3dc6ba5af_3 phases=1 bus1=node_407562643.3.4 conn=wye kv=0.1270 pf=1 pmpp=0.89 kva=0.89 irradiance=1 temperature=25 %cutin=20 %cutout=20 effcurve=MyEff P-TCurve=MyPvsT Daily=IRRAD_DIA TDaily=TEMP_DIA
New PVSystem.GD_18d73c6b3ca30b259b2e83289b3b3a67d76ebacc5d04b4bce6e43eaaf9c842ec_1 phases=1 bus1=node_407562643.1.4 conn=wye kv=0.1270 pf=1 pmpp=0.46 kva=0.46 irradiance=1 temperature=25 %cutin=20 %cutout=20 effcurve=MyEff P-TCurve=MyPvsT Daily=IRRAD_DIA TDaily=TEMP_DIA
New PVSystem.GD_18d73c6b3ca30b259b2e83289b3b3a67d76ebacc5d04b4bce6e43eaaf9c842ec_2 phases=1 bus1=node_407562643.2.4 conn=wye kv=0.1270 pf=1 pmpp=0.46 kva=0.46 irradiance=1 temperature=25 %cutin=20 %cutout=20 effcurve=MyEff P-TCurve=MyPvsT Daily=IRRAD_DIA TDaily=TEMP_DIA
New PVSystem.GD_18d73c6b3ca30b259b2e83289b3b3a67d76ebacc5d04b4bce6e43eaaf9c842ec_3 phases=1 bus1=node_407562643.3.4 conn=wye kv=0.1270 pf=1 pmpp=0.46 kva=0.46 irradiance=1 temperature=25 %cutin=20 %cutout=20 effcurve=MyEff P-TCurve=MyPvsT Daily=IRRAD_DIA TDaily=TEMP_DIA
New PVSystem.GD_ac40eab5e4053731adb168afb962c574511f8948154c9948d5d4c5c833148f4f_1 phases=1 bus1=node_407562106.1.4 conn=wye kv=0.1270 pf=1 pmpp=1.16 kva=1.16 irradiance=1 temperature=25 %cutin=20 %cutout=20 effcurve=MyEff P-TCurve=MyPvsT Daily=IRRAD_DIA TDaily=TEMP_DIA
New PVSystem.GD_ac40eab5e4053731adb168afb962c574511f8948154c9948d5d4c5c833148f4f_2 phases=1 bus1=node_407562106.2.4 conn=wye kv=0.1270 pf=1 pmpp=1.16 kva=1.16 irradiance=1 temperature=25 %cutin=20 %cutout=20 effcurve=MyEff P-TCurve=MyPvsT Daily=IRRAD_DIA TDaily=TEMP_DIA
New PVSystem.GD_ac40eab5e4053731adb168afb962c574511f8948154c9948d5d4c5c833148f4f_3 phases=1 bus1=node_407562106.3.4 conn=wye kv=0.1270 pf=1 pmpp=1.16 kva=1.16 irradiance=1 temperature=25 %cutin=20 %cutout=20 effcurve=MyEff P-TCurve=MyPvsT Daily=IRRAD_DIA TDaily=TEMP_DIA
New PVSystem.GD_912bb53854c412ea2b8064aac3f12bcd2c171adae60ac4a646dd9cae78a55575_1 phases=1 bus1=node_407562106.1.4 conn=wye kv=0.1270 pf=1 pmpp=6.97 kva=6.97 irradiance=1 temperature=25 %cutin=20 %cutout=20 effcurve=MyEff P-TCurve=MyPvsT Daily=IRRAD_DIA TDaily=TEMP_DIA
New PVSystem.GD_912bb53854c412ea2b8064aac3f12bcd2c171adae60ac4a646dd9cae78a55575_2 phases=1 bus1=node_407562106.2.4 conn=wye kv=0.1270 pf=1 pmpp=6.97 kva=6.97 irradiance=1 temperature=25 %cutin=20 %cutout=20 effcurve=MyEff P-TCurve=MyPvsT Daily=IRRAD_DIA TDaily=TEMP_DIA
New PVSystem.GD_912bb53854c412ea2b8064aac3f12bcd2c171adae60ac4a646dd9cae78a55575_3 phases=1 bus1=node_407562106.3.4 conn=wye kv=0.1270 pf=1 pmpp=6.97 kva=6.97 irradiance=1 temperature=25 %cutin=20 %cutout=20 effcurve=MyEff P-TCurve=MyPvsT Daily=IRRAD_DIA TDaily=TEMP_DIA
New PVSystem.GD_288a1f03eadd8ce110a7f65bca2529d13ec96a09c21fb2fb0cf4acf2f5b6bd6b_1 phases=1 bus1=node_407695514.1.4 conn=wye kv=0.1270 pf=1 pmpp=0.28 kva=0.28 irradiance=1 temperature=25 %cutin=20 %cutout=20 effcurve=MyEff P-TCurve=MyPvsT Daily=IRRAD_DIA TDaily=TEMP_DIA
New PVSystem.GD_288a1f03eadd8ce110a7f65bca2529d13ec96a09c21fb2fb0cf4acf2f5b6bd6b_2 phases=1 bus1=node_407695514.2.4 conn=wye kv=0.1270 pf=1 pmpp=0.28 kva=0.28 irradiance=1 temperature=25 %cutin=20 %cutout=20 effcurve=MyEff P-TCurve=MyPvsT Daily=IRRAD_DIA TDaily=TEMP_DIA
New PVSystem.GD_288a1f03eadd8ce110a7f65bca2529d13ec96a09c21fb2fb0cf4acf2f5b6bd6b_3 phases=1 bus1=node_407695514.3.4 conn=wye kv=0.1270 pf=1 pmpp=0.28 kva=0.28 irradiance=1 temperature=25 %cutin=20 %cutout=20 effcurve=MyEff P-TCurve=MyPvsT Daily=IRRAD_DIA TDaily=TEMP_DIA
New PVSystem.GD_171fccb40088fbc7809b2976ac71e198da03c96ee50a81fc9fa340473c787c02_1 phases=1 bus1=node_408150712.1.4 conn=wye kv=0.1270 pf=1 pmpp=0.80 kva=0.80 irradiance=1 temperature=25 %cutin=20 %cutout=20 effcurve=MyEff P-TCurve=MyPvsT Daily=IRRAD_DIA TDaily=TEMP_DIA
New PVSystem.GD_171fccb40088fbc7809b2976ac71e198da03c96ee50a81fc9fa340473c787c02_2 phases=1 bus1=node_408150712.2.4 conn=wye kv=0.1270 pf=1 pmpp=0.80 kva=0.80 irradiance=1 temperature=25 %cutin=20 %cutout=20 effcurve=MyEff P-TCurve=MyPvsT Daily=IRRAD_DIA TDaily=TEMP_DIA
New PVSystem.GD_171fccb40088fbc7809b2976ac71e198da03c96ee50a81fc9fa340473c787c02_3 phases=1 bus1=node_408150712.3.4 conn=wye kv=0.1270 pf=1 pmpp=0.80 kva=0.80 irradiance=1 temperature=25 %cutin=20 %cutout=20 effcurve=MyEff P-TCurve=MyPvsT Daily=IRRAD_DIA TDaily=TEMP_DIA
New PVSystem.GD_bb92484d46a301b5d8194917c0d443e725b1f2820264234d6ad7fec0b32eb6ad_1 phases=1 bus1=node_408150712.1.4 conn=wye kv=0.1270 pf=1 pmpp=2.46 kva=2.46 irradiance=1 temperature=25 %cutin=20 %cutout=20 effcurve=MyEff P-TCurve=MyPvsT Daily=IRRAD_DIA TDaily=TEMP_DIA
New PVSystem.GD_bb92484d46a301b5d8194917c0d443e725b1f2820264234d6ad7fec0b32eb6ad_2 phases=1 bus1=node_408150712.2.4 conn=wye kv=0.1270 pf=1 pmpp=2.46 kva=2.46 irradiance=1 temperature=25 %cutin=20 %cutout=20 effcurve=MyEff P-TCurve=MyPvsT Daily=IRRAD_DIA TDaily=TEMP_DIA
New PVSystem.GD_bb92484d46a301b5d8194917c0d443e725b1f2820264234d6ad7fec0b32eb6ad_3 phases=1 bus1=node_408150712.3.4 conn=wye kv=0.1270 pf=1 pmpp=2.46 kva=2.46 irradiance=1 temperature=25 %cutin=20 %cutout=20 effcurve=MyEff P-TCurve=MyPvsT Daily=IRRAD_DIA TDaily=TEMP_DIA
New PVSystem.GD_a23a018f3b39729140133a5cb90fa0ab57af0675074da1cbfa68b845b5a83df8_1 phases=1 bus1=node_407563078.1.4 conn=wye kv=0.1270 pf=1 pmpp=1.24 kva=1.24 irradiance=1 temperature=25 %cutin=20 %cutout=20 effcurve=MyEff P-TCurve=MyPvsT Daily=IRRAD_DIA TDaily=TEMP_DIA
New PVSystem.GD_a23a018f3b39729140133a5cb90fa0ab57af0675074da1cbfa68b845b5a83df8_2 phases=1 bus1=node_407563078.2.4 conn=wye kv=0.1270 pf=1 pmpp=1.24 kva=1.24 irradiance=1 temperature=25 %cutin=20 %cutout=20 effcurve=MyEff P-TCurve=MyPvsT Daily=IRRAD_DIA TDaily=TEMP_DIA
New PVSystem.GD_a23a018f3b39729140133a5cb90fa0ab57af0675074da1cbfa68b845b5a83df8_3 phases=1 bus1=node_407563078.3.4 conn=wye kv=0.1270 pf=1 pmpp=1.24 kva=1.24 irradiance=1 temperature=25 %cutin=20 %cutout=20 effcurve=MyEff P-TCurve=MyPvsT Daily=IRRAD_DIA TDaily=TEMP_DIA
New PVSystem.GD_b95d1156d05d4589b457b136ff1d1647286ad44312da52430e1b4d936ab7e6d9_1 phases=1 bus1=node_407563078.1.4 conn=wye kv=0.1270 pf=1 pmpp=0.39 kva=0.39 irradiance=1 temperature=25 %cutin=20 %cutout=20 effcurve=MyEff P-TCurve=MyPvsT Daily=IRRAD_DIA TDaily=TEMP_DIA
New PVSystem.GD_b95d1156d05d4589b457b136ff1d1647286ad44312da52430e1b4d936ab7e6d9_2 phases=1 bus1=node_407563078.2.4 conn=wye kv=0.1270 pf=1 pmpp=0.39 kva=0.39 irradiance=1 temperature=25 %cutin=20 %cutout=20 effcurve=MyEff P-TCurve=MyPvsT Daily=IRRAD_DIA TDaily=TEMP_DIA
New PVSystem.GD_b95d1156d05d4589b457b136ff1d1647286ad44312da52430e1b4d936ab7e6d9_3 phases=1 bus1=node_407563078.3.4 conn=wye kv=0.1270 pf=1 pmpp=0.39 kva=0.39 irradiance=1 temperature=25 %cutin=20 %cutout=20 effcurve=MyEff P-TCurve=MyPvsT Daily=IRRAD_DIA TDaily=TEMP_DIA
New PVSystem.GD_7c42f247f318c93c26ec552686272cd25472091773f572be3b5b7e6f4ac35794_1 phases=1 bus1=node_407563081.1.4 conn=wye kv=0.1270 pf=1 pmpp=0.50 kva=0.50 irradiance=1 temperature=25 %cutin=20 %cutout=20 effcurve=MyEff P-TCurve=MyPvsT Daily=IRRAD_DIA TDaily=TEMP_DIA
New PVSystem.GD_7c42f247f318c93c26ec552686272cd25472091773f572be3b5b7e6f4ac35794_2 phases=1 bus1=node_407563081.2.4 conn=wye kv=0.1270 pf=1 pmpp=0.50 kva=0.50 irradiance=1 temperature=25 %cutin=20 %cutout=20 effcurve=MyEff P-TCurve=MyPvsT Daily=IRRAD_DIA TDaily=TEMP_DIA
New PVSystem.GD_7c42f247f318c93c26ec552686272cd25472091773f572be3b5b7e6f4ac35794_3 phases=1 bus1=node_407563081.3.4 conn=wye kv=0.1270 pf=1 pmpp=0.50 kva=0.50 irradiance=1 temperature=25 %cutin=20 %cutout=20 effcurve=MyEff P-TCurve=MyPvsT Daily=IRRAD_DIA TDaily=TEMP_DIA
New PVSystem.GD_8c63b4d849179fd8623c6b87516d32b233ffa8f0a80bf56add102e5818be2bf9_1 phases=1 bus1=node_407793545.1.4 conn=wye kv=0.1270 pf=1 pmpp=0.51 kva=0.51 irradiance=1 temperature=25 %cutin=20 %cutout=20 effcurve=MyEff P-TCurve=MyPvsT Daily=IRRAD_DIA TDaily=TEMP_DIA
New PVSystem.GD_8c63b4d849179fd8623c6b87516d32b233ffa8f0a80bf56add102e5818be2bf9_2 phases=1 bus1=node_407793545.2.4 conn=wye kv=0.1270 pf=1 pmpp=0.51 kva=0.51 irradiance=1 temperature=25 %cutin=20 %cutout=20 effcurve=MyEff P-TCurve=MyPvsT Daily=IRRAD_DIA TDaily=TEMP_DIA
New PVSystem.GD_8c63b4d849179fd8623c6b87516d32b233ffa8f0a80bf56add102e5818be2bf9_3 phases=1 bus1=node_407793545.3.4 conn=wye kv=0.1270 pf=1 pmpp=0.51 kva=0.51 irradiance=1 temperature=25 %cutin=20 %cutout=20 effcurve=MyEff P-TCurve=MyPvsT Daily=IRRAD_DIA TDaily=TEMP_DIA
New PVSystem.GD_d7690d00a54c8bdaac614162cb777a73d4f4caf6dfcf60eb5c481c84241cb932_1 phases=1 bus1=node_407793545.1.4 conn=wye kv=0.1270 pf=1 pmpp=1.11 kva=1.11 irradiance=1 temperature=25 %cutin=20 %cutout=20 effcurve=MyEff P-TCurve=MyPvsT Daily=IRRAD_DIA TDaily=TEMP_DIA
New PVSystem.GD_d7690d00a54c8bdaac614162cb777a73d4f4caf6dfcf60eb5c481c84241cb932_2 phases=1 bus1=node_407793545.2.4 conn=wye kv=0.1270 pf=1 pmpp=1.11 kva=1.11 irradiance=1 temperature=25 %cutin=20 %cutout=20 effcurve=MyEff P-TCurve=MyPvsT Daily=IRRAD_DIA TDaily=TEMP_DIA
New PVSystem.GD_d7690d00a54c8bdaac614162cb777a73d4f4caf6dfcf60eb5c481c84241cb932_3 phases=1 bus1=node_407793545.3.4 conn=wye kv=0.1270 pf=1 pmpp=1.11 kva=1.11 irradiance=1 temperature=25 %cutin=20 %cutout=20 effcurve=MyEff P-TCurve=MyPvsT Daily=IRRAD_DIA TDaily=TEMP_DIA
New PVSystem.GD_4666bbaae0f08bc64dae3e36a7b6abc582441323eafeb2abdfee8e9ded28043c_1 phases=1 bus1=node_407793545.1.4 conn=wye kv=0.1270 pf=1 pmpp=0.68 kva=0.68 irradiance=1 temperature=25 %cutin=20 %cutout=20 effcurve=MyEff P-TCurve=MyPvsT Daily=IRRAD_DIA TDaily=TEMP_DIA
New PVSystem.GD_4666bbaae0f08bc64dae3e36a7b6abc582441323eafeb2abdfee8e9ded28043c_2 phases=1 bus1=node_407793545.2.4 conn=wye kv=0.1270 pf=1 pmpp=0.68 kva=0.68 irradiance=1 temperature=25 %cutin=20 %cutout=20 effcurve=MyEff P-TCurve=MyPvsT Daily=IRRAD_DIA TDaily=TEMP_DIA
New PVSystem.GD_4666bbaae0f08bc64dae3e36a7b6abc582441323eafeb2abdfee8e9ded28043c_3 phases=1 bus1=node_407793545.3.4 conn=wye kv=0.1270 pf=1 pmpp=0.68 kva=0.68 irradiance=1 temperature=25 %cutin=20 %cutout=20 effcurve=MyEff P-TCurve=MyPvsT Daily=IRRAD_DIA TDaily=TEMP_DIA
New PVSystem.GD_925269176b25e6293dea52240979b3c16b90b4f4becef659c5a668cb672530f4_1 phases=1 bus1=node_407562730.1.4 conn=wye kv=0.1270 pf=1 pmpp=2.52 kva=2.52 irradiance=1 temperature=25 %cutin=20 %cutout=20 effcurve=MyEff P-TCurve=MyPvsT Daily=IRRAD_DIA TDaily=TEMP_DIA
New PVSystem.GD_925269176b25e6293dea52240979b3c16b90b4f4becef659c5a668cb672530f4_2 phases=1 bus1=node_407562730.2.4 conn=wye kv=0.1270 pf=1 pmpp=2.52 kva=2.52 irradiance=1 temperature=25 %cutin=20 %cutout=20 effcurve=MyEff P-TCurve=MyPvsT Daily=IRRAD_DIA TDaily=TEMP_DIA
New PVSystem.GD_925269176b25e6293dea52240979b3c16b90b4f4becef659c5a668cb672530f4_3 phases=1 bus1=node_407562730.3.4 conn=wye kv=0.1270 pf=1 pmpp=2.52 kva=2.52 irradiance=1 temperature=25 %cutin=20 %cutout=20 effcurve=MyEff P-TCurve=MyPvsT Daily=IRRAD_DIA TDaily=TEMP_DIA
New PVSystem.GD_34e0b3594a87b6b68706306595e0eba8ac99ea675513590b7f9c4b3a9ad2b2a8_1 phases=1 bus1=node_407612880.1.4 conn=wye kv=0.1270 pf=1 pmpp=0.72 kva=0.72 irradiance=1 temperature=25 %cutin=20 %cutout=20 effcurve=MyEff P-TCurve=MyPvsT Daily=IRRAD_DIA TDaily=TEMP_DIA
New PVSystem.GD_34e0b3594a87b6b68706306595e0eba8ac99ea675513590b7f9c4b3a9ad2b2a8_2 phases=1 bus1=node_407612880.2.4 conn=wye kv=0.1270 pf=1 pmpp=0.72 kva=0.72 irradiance=1 temperature=25 %cutin=20 %cutout=20 effcurve=MyEff P-TCurve=MyPvsT Daily=IRRAD_DIA TDaily=TEMP_DIA
New PVSystem.GD_34e0b3594a87b6b68706306595e0eba8ac99ea675513590b7f9c4b3a9ad2b2a8_3 phases=1 bus1=node_407612880.3.4 conn=wye kv=0.1270 pf=1 pmpp=0.72 kva=0.72 irradiance=1 temperature=25 %cutin=20 %cutout=20 effcurve=MyEff P-TCurve=MyPvsT Daily=IRRAD_DIA TDaily=TEMP_DIA
New PVSystem.GD_2f91a3885f597d7a4c5a439272d77015d248c90cc6c71cbdae028d01521d7a5e_1 phases=1 bus1=node_407562787.1.4 conn=wye kv=0.1200 pf=1 pmpp=1.42 kva=1.42 irradiance=1 temperature=25 %cutin=20 %cutout=20 effcurve=MyEff P-TCurve=MyPvsT Daily=IRRAD_DIA TDaily=TEMP_DIA
New PVSystem.GD_2f91a3885f597d7a4c5a439272d77015d248c90cc6c71cbdae028d01521d7a5e_2 phases=1 bus1=node_407562787.2.4 conn=wye kv=0.1200 pf=1 pmpp=1.42 kva=1.42 irradiance=1 temperature=25 %cutin=20 %cutout=20 effcurve=MyEff P-TCurve=MyPvsT Daily=IRRAD_DIA TDaily=TEMP_DIA
New PVSystem.GD_b491c678e74304c235a2caab3c40160a00b1c8a066b10801c209ee49cfce29b0_1 phases=1 bus1=node_460531254.1.4 conn=wye kv=0.1270 pf=1 pmpp=0.53 kva=0.53 irradiance=1 temperature=25 %cutin=20 %cutout=20 effcurve=MyEff P-TCurve=MyPvsT Daily=IRRAD_DIA TDaily=TEMP_DIA
New PVSystem.GD_b491c678e74304c235a2caab3c40160a00b1c8a066b10801c209ee49cfce29b0_2 phases=1 bus1=node_460531254.2.4 conn=wye kv=0.1270 pf=1 pmpp=0.53 kva=0.53 irradiance=1 temperature=25 %cutin=20 %cutout=20 effcurve=MyEff P-TCurve=MyPvsT Daily=IRRAD_DIA TDaily=TEMP_DIA
New PVSystem.GD_b491c678e74304c235a2caab3c40160a00b1c8a066b10801c209ee49cfce29b0_3 phases=1 bus1=node_460531254.3.4 conn=wye kv=0.1270 pf=1 pmpp=0.53 kva=0.53 irradiance=1 temperature=25 %cutin=20 %cutout=20 effcurve=MyEff P-TCurve=MyPvsT Daily=IRRAD_DIA TDaily=TEMP_DIA
New PVSystem.GD_fea91e0a19b6350967707993cc5c28e93c6c746b99daab8a7fedb13938ad6554_1 phases=1 bus1=node_407562016.1.4 conn=wye kv=0.1270 pf=1 pmpp=0.72 kva=0.72 irradiance=1 temperature=25 %cutin=20 %cutout=20 effcurve=MyEff P-TCurve=MyPvsT Daily=IRRAD_DIA TDaily=TEMP_DIA
New PVSystem.GD_fea91e0a19b6350967707993cc5c28e93c6c746b99daab8a7fedb13938ad6554_2 phases=1 bus1=node_407562016.2.4 conn=wye kv=0.1270 pf=1 pmpp=0.72 kva=0.72 irradiance=1 temperature=25 %cutin=20 %cutout=20 effcurve=MyEff P-TCurve=MyPvsT Daily=IRRAD_DIA TDaily=TEMP_DIA
New PVSystem.GD_fea91e0a19b6350967707993cc5c28e93c6c746b99daab8a7fedb13938ad6554_3 phases=1 bus1=node_407562016.3.4 conn=wye kv=0.1270 pf=1 pmpp=0.72 kva=0.72 irradiance=1 temperature=25 %cutin=20 %cutout=20 effcurve=MyEff P-TCurve=MyPvsT Daily=IRRAD_DIA TDaily=TEMP_DIA
New PVSystem.GD_ed88484cdac8808605759886ea8df20318526903e2d0694f951a686a497b42f3_1 phases=1 bus1=node_407562016.1.4 conn=wye kv=0.1270 pf=1 pmpp=0.55 kva=0.55 irradiance=1 temperature=25 %cutin=20 %cutout=20 effcurve=MyEff P-TCurve=MyPvsT Daily=IRRAD_DIA TDaily=TEMP_DIA
New PVSystem.GD_ed88484cdac8808605759886ea8df20318526903e2d0694f951a686a497b42f3_2 phases=1 bus1=node_407562016.2.4 conn=wye kv=0.1270 pf=1 pmpp=0.55 kva=0.55 irradiance=1 temperature=25 %cutin=20 %cutout=20 effcurve=MyEff P-TCurve=MyPvsT Daily=IRRAD_DIA TDaily=TEMP_DIA
New PVSystem.GD_ed88484cdac8808605759886ea8df20318526903e2d0694f951a686a497b42f3_3 phases=1 bus1=node_407562016.3.4 conn=wye kv=0.1270 pf=1 pmpp=0.55 kva=0.55 irradiance=1 temperature=25 %cutin=20 %cutout=20 effcurve=MyEff P-TCurve=MyPvsT Daily=IRRAD_DIA TDaily=TEMP_DIA
New PVSystem.GD_683a2f14ac0ed14ec4a1793b763fab5ae41b5262986d99768a9976581ceb0926_1 phases=1 bus1=node_407562016.1.4 conn=wye kv=0.1270 pf=1 pmpp=1.74 kva=1.74 irradiance=1 temperature=25 %cutin=20 %cutout=20 effcurve=MyEff P-TCurve=MyPvsT Daily=IRRAD_DIA TDaily=TEMP_DIA
New PVSystem.GD_683a2f14ac0ed14ec4a1793b763fab5ae41b5262986d99768a9976581ceb0926_2 phases=1 bus1=node_407562016.2.4 conn=wye kv=0.1270 pf=1 pmpp=1.74 kva=1.74 irradiance=1 temperature=25 %cutin=20 %cutout=20 effcurve=MyEff P-TCurve=MyPvsT Daily=IRRAD_DIA TDaily=TEMP_DIA
New PVSystem.GD_683a2f14ac0ed14ec4a1793b763fab5ae41b5262986d99768a9976581ceb0926_3 phases=1 bus1=node_407562016.3.4 conn=wye kv=0.1270 pf=1 pmpp=1.74 kva=1.74 irradiance=1 temperature=25 %cutin=20 %cutout=20 effcurve=MyEff P-TCurve=MyPvsT Daily=IRRAD_DIA TDaily=TEMP_DIA
New PVSystem.GD_004571eb92b30ac5e38140ccd8d772d4a63a65c8da4030cd0bb814edad61741c_1 phases=1 bus1=node_407562016.1.4 conn=wye kv=0.1270 pf=1 pmpp=0.15 kva=0.15 irradiance=1 temperature=25 %cutin=20 %cutout=20 effcurve=MyEff P-TCurve=MyPvsT Daily=IRRAD_DIA TDaily=TEMP_DIA
New PVSystem.GD_004571eb92b30ac5e38140ccd8d772d4a63a65c8da4030cd0bb814edad61741c_2 phases=1 bus1=node_407562016.2.4 conn=wye kv=0.1270 pf=1 pmpp=0.15 kva=0.15 irradiance=1 temperature=25 %cutin=20 %cutout=20 effcurve=MyEff P-TCurve=MyPvsT Daily=IRRAD_DIA TDaily=TEMP_DIA
New PVSystem.GD_004571eb92b30ac5e38140ccd8d772d4a63a65c8da4030cd0bb814edad61741c_3 phases=1 bus1=node_407562016.3.4 conn=wye kv=0.1270 pf=1 pmpp=0.15 kva=0.15 irradiance=1 temperature=25 %cutin=20 %cutout=20 effcurve=MyEff P-TCurve=MyPvsT Daily=IRRAD_DIA TDaily=TEMP_DIA
New PVSystem.GD_bf3fd530ecc3a1177dd4ed573b61fd471db2ce9b053186b78c5b681c4d364423_1 phases=1 bus1=node_407562016.1.4 conn=wye kv=0.1270 pf=1 pmpp=0.94 kva=0.94 irradiance=1 temperature=25 %cutin=20 %cutout=20 effcurve=MyEff P-TCurve=MyPvsT Daily=IRRAD_DIA TDaily=TEMP_DIA
New PVSystem.GD_bf3fd530ecc3a1177dd4ed573b61fd471db2ce9b053186b78c5b681c4d364423_2 phases=1 bus1=node_407562016.2.4 conn=wye kv=0.1270 pf=1 pmpp=0.94 kva=0.94 irradiance=1 temperature=25 %cutin=20 %cutout=20 effcurve=MyEff P-TCurve=MyPvsT Daily=IRRAD_DIA TDaily=TEMP_DIA
New PVSystem.GD_bf3fd530ecc3a1177dd4ed573b61fd471db2ce9b053186b78c5b681c4d364423_3 phases=1 bus1=node_407562016.3.4 conn=wye kv=0.1270 pf=1 pmpp=0.94 kva=0.94 irradiance=1 temperature=25 %cutin=20 %cutout=20 effcurve=MyEff P-TCurve=MyPvsT Daily=IRRAD_DIA TDaily=TEMP_DIA
New PVSystem.GD_adca4427ea776efead8b6a079bac06b616792d33821d84861e41160b83f9e1a5_1 phases=1 bus1=node_407562016.1.4 conn=wye kv=0.1270 pf=1 pmpp=0.52 kva=0.52 irradiance=1 temperature=25 %cutin=20 %cutout=20 effcurve=MyEff P-TCurve=MyPvsT Daily=IRRAD_DIA TDaily=TEMP_DIA
New PVSystem.GD_adca4427ea776efead8b6a079bac06b616792d33821d84861e41160b83f9e1a5_2 phases=1 bus1=node_407562016.2.4 conn=wye kv=0.1270 pf=1 pmpp=0.52 kva=0.52 irradiance=1 temperature=25 %cutin=20 %cutout=20 effcurve=MyEff P-TCurve=MyPvsT Daily=IRRAD_DIA TDaily=TEMP_DIA
New PVSystem.GD_adca4427ea776efead8b6a079bac06b616792d33821d84861e41160b83f9e1a5_3 phases=1 bus1=node_407562016.3.4 conn=wye kv=0.1270 pf=1 pmpp=0.52 kva=0.52 irradiance=1 temperature=25 %cutin=20 %cutout=20 effcurve=MyEff P-TCurve=MyPvsT Daily=IRRAD_DIA TDaily=TEMP_DIA
New PVSystem.GD_ac951d3a8cc6c84b20d37dfcb237cd99805c55cb1ca55a43774a9e01f04e0e29_1 phases=1 bus1=node_407562016.1.4 conn=wye kv=0.1270 pf=1 pmpp=1.71 kva=1.71 irradiance=1 temperature=25 %cutin=20 %cutout=20 effcurve=MyEff P-TCurve=MyPvsT Daily=IRRAD_DIA TDaily=TEMP_DIA
New PVSystem.GD_ac951d3a8cc6c84b20d37dfcb237cd99805c55cb1ca55a43774a9e01f04e0e29_2 phases=1 bus1=node_407562016.2.4 conn=wye kv=0.1270 pf=1 pmpp=1.71 kva=1.71 irradiance=1 temperature=25 %cutin=20 %cutout=20 effcurve=MyEff P-TCurve=MyPvsT Daily=IRRAD_DIA TDaily=TEMP_DIA
New PVSystem.GD_ac951d3a8cc6c84b20d37dfcb237cd99805c55cb1ca55a43774a9e01f04e0e29_3 phases=1 bus1=node_407562016.3.4 conn=wye kv=0.1270 pf=1 pmpp=1.71 kva=1.71 irradiance=1 temperature=25 %cutin=20 %cutout=20 effcurve=MyEff P-TCurve=MyPvsT Daily=IRRAD_DIA TDaily=TEMP_DIA
New PVSystem.GD_73aa836e647ee99d2e09a76556860f2b4b9accc075c6d3be6425bfb0d41cbe45_1 phases=1 bus1=node_407562655.1.4 conn=wye kv=0.1270 pf=1 pmpp=2.40 kva=2.40 irradiance=1 temperature=25 %cutin=20 %cutout=20 effcurve=MyEff P-TCurve=MyPvsT Daily=IRRAD_DIA TDaily=TEMP_DIA
New PVSystem.GD_73aa836e647ee99d2e09a76556860f2b4b9accc075c6d3be6425bfb0d41cbe45_2 phases=1 bus1=node_407562655.2.4 conn=wye kv=0.1270 pf=1 pmpp=2.40 kva=2.40 irradiance=1 temperature=25 %cutin=20 %cutout=20 effcurve=MyEff P-TCurve=MyPvsT Daily=IRRAD_DIA TDaily=TEMP_DIA
New PVSystem.GD_73aa836e647ee99d2e09a76556860f2b4b9accc075c6d3be6425bfb0d41cbe45_3 phases=1 bus1=node_407562655.3.4 conn=wye kv=0.1270 pf=1 pmpp=2.40 kva=2.40 irradiance=1 temperature=25 %cutin=20 %cutout=20 effcurve=MyEff P-TCurve=MyPvsT Daily=IRRAD_DIA TDaily=TEMP_DIA
New PVSystem.GD_ff6a9832922be636483749fc8eae694c8d466731ab127657daedbe131221cc25_1 phases=1 bus1=node_407563318.1.4 conn=wye kv=0.1270 pf=1 pmpp=0.26 kva=0.26 irradiance=1 temperature=25 %cutin=20 %cutout=20 effcurve=MyEff P-TCurve=MyPvsT Daily=IRRAD_DIA TDaily=TEMP_DIA
New PVSystem.GD_ff6a9832922be636483749fc8eae694c8d466731ab127657daedbe131221cc25_2 phases=1 bus1=node_407563318.2.4 conn=wye kv=0.1270 pf=1 pmpp=0.26 kva=0.26 irradiance=1 temperature=25 %cutin=20 %cutout=20 effcurve=MyEff P-TCurve=MyPvsT Daily=IRRAD_DIA TDaily=TEMP_DIA
New PVSystem.GD_ff6a9832922be636483749fc8eae694c8d466731ab127657daedbe131221cc25_3 phases=1 bus1=node_407563318.3.4 conn=wye kv=0.1270 pf=1 pmpp=0.26 kva=0.26 irradiance=1 temperature=25 %cutin=20 %cutout=20 effcurve=MyEff P-TCurve=MyPvsT Daily=IRRAD_DIA TDaily=TEMP_DIA
New PVSystem.GD_3843f6d41500169fba3294658c9ac11f74485b9b9203d433d2f4e3cee91ebfc0_1 phases=1 bus1=node_407563591.1.4 conn=wye kv=0.1270 pf=1 pmpp=0.97 kva=0.97 irradiance=1 temperature=25 %cutin=20 %cutout=20 effcurve=MyEff P-TCurve=MyPvsT Daily=IRRAD_DIA TDaily=TEMP_DIA
New PVSystem.GD_3843f6d41500169fba3294658c9ac11f74485b9b9203d433d2f4e3cee91ebfc0_2 phases=1 bus1=node_407563591.2.4 conn=wye kv=0.1270 pf=1 pmpp=0.97 kva=0.97 irradiance=1 temperature=25 %cutin=20 %cutout=20 effcurve=MyEff P-TCurve=MyPvsT Daily=IRRAD_DIA TDaily=TEMP_DIA
New PVSystem.GD_3843f6d41500169fba3294658c9ac11f74485b9b9203d433d2f4e3cee91ebfc0_3 phases=1 bus1=node_407563591.3.4 conn=wye kv=0.1270 pf=1 pmpp=0.97 kva=0.97 irradiance=1 temperature=25 %cutin=20 %cutout=20 effcurve=MyEff P-TCurve=MyPvsT Daily=IRRAD_DIA TDaily=TEMP_DIA
New PVSystem.GD_60cb8a4209a1cc3b31da14eda35bf3aac78f25703eacdee77298a5ba8f9da1ed_1 phases=1 bus1=node_407563591.1.4 conn=wye kv=0.1270 pf=1 pmpp=0.12 kva=0.12 irradiance=1 temperature=25 %cutin=20 %cutout=20 effcurve=MyEff P-TCurve=MyPvsT Daily=IRRAD_DIA TDaily=TEMP_DIA
New PVSystem.GD_60cb8a4209a1cc3b31da14eda35bf3aac78f25703eacdee77298a5ba8f9da1ed_2 phases=1 bus1=node_407563591.2.4 conn=wye kv=0.1270 pf=1 pmpp=0.12 kva=0.12 irradiance=1 temperature=25 %cutin=20 %cutout=20 effcurve=MyEff P-TCurve=MyPvsT Daily=IRRAD_DIA TDaily=TEMP_DIA
New PVSystem.GD_60cb8a4209a1cc3b31da14eda35bf3aac78f25703eacdee77298a5ba8f9da1ed_3 phases=1 bus1=node_407563591.3.4 conn=wye kv=0.1270 pf=1 pmpp=0.12 kva=0.12 irradiance=1 temperature=25 %cutin=20 %cutout=20 effcurve=MyEff P-TCurve=MyPvsT Daily=IRRAD_DIA TDaily=TEMP_DIA
New PVSystem.GD_a55a8d00ff0f148c3fe6e33b6b1ea070e7867b08eb8ad8e57061530a42f49d76_1 phases=1 bus1=node_407562616.1.4 conn=wye kv=0.1270 pf=1 pmpp=0.48 kva=0.48 irradiance=1 temperature=25 %cutin=20 %cutout=20 effcurve=MyEff P-TCurve=MyPvsT Daily=IRRAD_DIA TDaily=TEMP_DIA
New PVSystem.GD_a55a8d00ff0f148c3fe6e33b6b1ea070e7867b08eb8ad8e57061530a42f49d76_2 phases=1 bus1=node_407562616.2.4 conn=wye kv=0.1270 pf=1 pmpp=0.48 kva=0.48 irradiance=1 temperature=25 %cutin=20 %cutout=20 effcurve=MyEff P-TCurve=MyPvsT Daily=IRRAD_DIA TDaily=TEMP_DIA
New PVSystem.GD_a55a8d00ff0f148c3fe6e33b6b1ea070e7867b08eb8ad8e57061530a42f49d76_3 phases=1 bus1=node_407562616.3.4 conn=wye kv=0.1270 pf=1 pmpp=0.48 kva=0.48 irradiance=1 temperature=25 %cutin=20 %cutout=20 effcurve=MyEff P-TCurve=MyPvsT Daily=IRRAD_DIA TDaily=TEMP_DIA
New PVSystem.GD_99acf148895b18e9199865fd50c638069745ccb61568efb73ee8efe28d74a5a3_1 phases=1 bus1=node_407562856.1.4 conn=wye kv=0.1270 pf=1 pmpp=0.76 kva=0.76 irradiance=1 temperature=25 %cutin=20 %cutout=20 effcurve=MyEff P-TCurve=MyPvsT Daily=IRRAD_DIA TDaily=TEMP_DIA
New PVSystem.GD_99acf148895b18e9199865fd50c638069745ccb61568efb73ee8efe28d74a5a3_2 phases=1 bus1=node_407562856.2.4 conn=wye kv=0.1270 pf=1 pmpp=0.76 kva=0.76 irradiance=1 temperature=25 %cutin=20 %cutout=20 effcurve=MyEff P-TCurve=MyPvsT Daily=IRRAD_DIA TDaily=TEMP_DIA
New PVSystem.GD_99acf148895b18e9199865fd50c638069745ccb61568efb73ee8efe28d74a5a3_3 phases=1 bus1=node_407562856.3.4 conn=wye kv=0.1270 pf=1 pmpp=0.76 kva=0.76 irradiance=1 temperature=25 %cutin=20 %cutout=20 effcurve=MyEff P-TCurve=MyPvsT Daily=IRRAD_DIA TDaily=TEMP_DIA
New PVSystem.GD_fd152716b6e6aa61ff77c68b99b422a3886ce5ade675e993159747e05c79f1c0_1 phases=1 bus1=node_407562640.1.4 conn=wye kv=0.1270 pf=1 pmpp=0.50 kva=0.50 irradiance=1 temperature=25 %cutin=20 %cutout=20 effcurve=MyEff P-TCurve=MyPvsT Daily=IRRAD_DIA TDaily=TEMP_DIA
New PVSystem.GD_fd152716b6e6aa61ff77c68b99b422a3886ce5ade675e993159747e05c79f1c0_2 phases=1 bus1=node_407562640.2.4 conn=wye kv=0.1270 pf=1 pmpp=0.50 kva=0.50 irradiance=1 temperature=25 %cutin=20 %cutout=20 effcurve=MyEff P-TCurve=MyPvsT Daily=IRRAD_DIA TDaily=TEMP_DIA
New PVSystem.GD_fd152716b6e6aa61ff77c68b99b422a3886ce5ade675e993159747e05c79f1c0_3 phases=1 bus1=node_407562640.3.4 conn=wye kv=0.1270 pf=1 pmpp=0.50 kva=0.50 irradiance=1 temperature=25 %cutin=20 %cutout=20 effcurve=MyEff P-TCurve=MyPvsT Daily=IRRAD_DIA TDaily=TEMP_DIA
New PVSystem.GD_7c13635ee9f41a24a5f4ed3120c979c24245f960c82844351dbad1a0aea95e03_1 phases=1 bus1=node_407562586.1.4 conn=wye kv=0.1270 pf=1 pmpp=0.30 kva=0.30 irradiance=1 temperature=25 %cutin=20 %cutout=20 effcurve=MyEff P-TCurve=MyPvsT Daily=IRRAD_DIA TDaily=TEMP_DIA
New PVSystem.GD_7c13635ee9f41a24a5f4ed3120c979c24245f960c82844351dbad1a0aea95e03_2 phases=1 bus1=node_407562586.2.4 conn=wye kv=0.1270 pf=1 pmpp=0.30 kva=0.30 irradiance=1 temperature=25 %cutin=20 %cutout=20 effcurve=MyEff P-TCurve=MyPvsT Daily=IRRAD_DIA TDaily=TEMP_DIA
New PVSystem.GD_7c13635ee9f41a24a5f4ed3120c979c24245f960c82844351dbad1a0aea95e03_3 phases=1 bus1=node_407562586.3.4 conn=wye kv=0.1270 pf=1 pmpp=0.30 kva=0.30 irradiance=1 temperature=25 %cutin=20 %cutout=20 effcurve=MyEff P-TCurve=MyPvsT Daily=IRRAD_DIA TDaily=TEMP_DIA
New PVSystem.GD_ee86a51648faafe0eb2ca5a0f167cfc13df02427a5bad19f9f7c1f866e810538_1 phases=1 bus1=node_407563546.1.4 conn=wye kv=0.1270 pf=1 pmpp=0.35 kva=0.35 irradiance=1 temperature=25 %cutin=20 %cutout=20 effcurve=MyEff P-TCurve=MyPvsT Daily=IRRAD_DIA TDaily=TEMP_DIA
New PVSystem.GD_ee86a51648faafe0eb2ca5a0f167cfc13df02427a5bad19f9f7c1f866e810538_2 phases=1 bus1=node_407563546.2.4 conn=wye kv=0.1270 pf=1 pmpp=0.35 kva=0.35 irradiance=1 temperature=25 %cutin=20 %cutout=20 effcurve=MyEff P-TCurve=MyPvsT Daily=IRRAD_DIA TDaily=TEMP_DIA
New PVSystem.GD_ee86a51648faafe0eb2ca5a0f167cfc13df02427a5bad19f9f7c1f866e810538_3 phases=1 bus1=node_407563546.3.4 conn=wye kv=0.1270 pf=1 pmpp=0.35 kva=0.35 irradiance=1 temperature=25 %cutin=20 %cutout=20 effcurve=MyEff P-TCurve=MyPvsT Daily=IRRAD_DIA TDaily=TEMP_DIA
New PVSystem.GD_c867743ef1433f0e6220bc9903a2b4662a79166a3a85226b5f1970011573a818_1 phases=1 bus1=node_407563546.1.4 conn=wye kv=0.1270 pf=1 pmpp=0.35 kva=0.35 irradiance=1 temperature=25 %cutin=20 %cutout=20 effcurve=MyEff P-TCurve=MyPvsT Daily=IRRAD_DIA TDaily=TEMP_DIA
New PVSystem.GD_c867743ef1433f0e6220bc9903a2b4662a79166a3a85226b5f1970011573a818_2 phases=1 bus1=node_407563546.2.4 conn=wye kv=0.1270 pf=1 pmpp=0.35 kva=0.35 irradiance=1 temperature=25 %cutin=20 %cutout=20 effcurve=MyEff P-TCurve=MyPvsT Daily=IRRAD_DIA TDaily=TEMP_DIA
New PVSystem.GD_c867743ef1433f0e6220bc9903a2b4662a79166a3a85226b5f1970011573a818_3 phases=1 bus1=node_407563546.3.4 conn=wye kv=0.1270 pf=1 pmpp=0.35 kva=0.35 irradiance=1 temperature=25 %cutin=20 %cutout=20 effcurve=MyEff P-TCurve=MyPvsT Daily=IRRAD_DIA TDaily=TEMP_DIA
New PVSystem.GD_74a5581e512aa880da3104f35cde227b94fb7360ac8f2c4b68f4114013044c69_1 phases=1 bus1=node_407562583.1.4 conn=wye kv=0.1270 pf=1 pmpp=1.56 kva=1.56 irradiance=1 temperature=25 %cutin=20 %cutout=20 effcurve=MyEff P-TCurve=MyPvsT Daily=IRRAD_DIA TDaily=TEMP_DIA
New PVSystem.GD_74a5581e512aa880da3104f35cde227b94fb7360ac8f2c4b68f4114013044c69_2 phases=1 bus1=node_407562583.2.4 conn=wye kv=0.1270 pf=1 pmpp=1.56 kva=1.56 irradiance=1 temperature=25 %cutin=20 %cutout=20 effcurve=MyEff P-TCurve=MyPvsT Daily=IRRAD_DIA TDaily=TEMP_DIA
New PVSystem.GD_74a5581e512aa880da3104f35cde227b94fb7360ac8f2c4b68f4114013044c69_3 phases=1 bus1=node_407562583.3.4 conn=wye kv=0.1270 pf=1 pmpp=1.56 kva=1.56 irradiance=1 temperature=25 %cutin=20 %cutout=20 effcurve=MyEff P-TCurve=MyPvsT Daily=IRRAD_DIA TDaily=TEMP_DIA
New PVSystem.GD_2c83439c0951e2957d639fd7ab94bbc5ffe5e44edb982ac31933c006b744829f_1 phases=1 bus1=node_407562583.1.4 conn=wye kv=0.1270 pf=1 pmpp=0.37 kva=0.37 irradiance=1 temperature=25 %cutin=20 %cutout=20 effcurve=MyEff P-TCurve=MyPvsT Daily=IRRAD_DIA TDaily=TEMP_DIA
New PVSystem.GD_2c83439c0951e2957d639fd7ab94bbc5ffe5e44edb982ac31933c006b744829f_2 phases=1 bus1=node_407562583.2.4 conn=wye kv=0.1270 pf=1 pmpp=0.37 kva=0.37 irradiance=1 temperature=25 %cutin=20 %cutout=20 effcurve=MyEff P-TCurve=MyPvsT Daily=IRRAD_DIA TDaily=TEMP_DIA
...
